[General]
cmdenv-express-mode = true
cmdenv-autoflush = true
cmdenv-status-frequency = 1s
output-vector-file = ${resultdir}/${configname}-${iterationvarsf}${repetition}.vec
**.cmdenv-log-level = info

ned-path = .
image-path = ../../images

network = RSUExampleScenario

##########################################################
#            Simulation parameters                       #
##########################################################
debug-on-errors = false
print-undisposed = false

sim-time-limit = 40s
**.result-recording-modes = default
**.scalar-recording = false
**.statistic-recording = true
**.vector-recording = true

**.debug = false
**.coreDebug = false

*.playgroundSizeX = 2500m
*.playgroundSizeY = 2500m
*.playgroundSizeZ = 50m


##########################################################
# Annotation parameters                                  #
##########################################################
*.annotations.draw = true

##########################################################
# Obstacle parameters                                    #
##########################################################
*.obstacles.debug = false
*.obstacles.obstacles = xmldoc("config.xml", "//AnalogueModel[@type='SimpleObstacleShadowing']/obstacles")

##########################################################
#            TraCIScenarioManager parameters             #
##########################################################
*.manager.updateInterval = 1s
*.manager.host = "localhost"
*.manager.port = 9999
*.manager.autoShutdown = true
*.manager.launchConfig = xmldoc("scenario1.launchd.xml")

##########################################################
#                       RSU SETTINGS                     #
#                                                        #
#                                                        #
##########################################################
#*.rsu[0].mobility.x = 2000 
#*.rsu[0].mobility.y = 2000 
#*.rsu[0].mobility.z = 3
#
#*.rsu[*].applType = "TraCIDemoRSU11p"
#*.rsu[*].appl.headerLength = 80 bit
#*.rsu[*].appl.sendBeacons = true
#*.rsu[*].appl.dataOnSch = false
#*.rsu[*].appl.beaconInterval = 1s
#*.rsu[*].appl.beaconUserPriority = 7
#*.rsu[*].appl.dataUserPriority = 5

##########################################################
#            11p specific parameters                     #
#                                                        #
#                    NIC-Settings                        #
##########################################################
*.connectionManager.sendDirect = true
*.connectionManager.maxInterfDist = 2600m
#*.connectionManager.maxInterfDist = 300m
*.connectionManager.drawMaxIntfDist = false

*.**.nic.mac1609_4.useServiceChannel = false

*.**.nic.mac1609_4.txPower = 20mW
*.**.nic.mac1609_4.bitrate = 6Mbps
*.**.nic.phy80211p.sensitivity = -89dBm

*.**.nic.phy80211p.useThermalNoise = true
*.**.nic.phy80211p.thermalNoise = -110dBm

*.**.nic.phy80211p.decider = xmldoc("config.xml")
*.**.nic.phy80211p.analogueModels = xmldoc("config.xml")
*.**.nic.phy80211p.usePropagationDelay = true

*.**.nic.phy80211p.antenna = xmldoc("antenna.xml", "/root/Antenna[@id='monopole']")

##########################################################
#                    WaveAppLayer                        #
##########################################################
*.node[*].applType = "TraCIDemo11p"
*.node[*].appl.headerLength = 80 bit
*.node[*].appl.sendBeacons = true
*.node[*].appl.dataOnSch = false
*.node[*].appl.beaconInterval = 1s
*.node[*].appl.beaconLengthBits = 1074 bit #EC23112017 default:256 (1074+80+46=1200 bit = 150B) 

##########################################################
#                      Mobility                          #
##########################################################
*.node[*].veinsmobilityType.debug = true
*.node[*].veinsmobility.x = 0
*.node[*].veinsmobility.y = 0
*.node[*].veinsmobility.z = 1.895
#*.node[*0].veinsmobility.accidentCount = 1
#*.node[*0].veinsmobility.accidentStart = 75s
#*.node[*0].veinsmobility.accidentDuration = 50s

[Config WithoutChannelSwitching]

[Config WithChannelSwitching]
*.**.nic.mac1609_4.useServiceChannel = true
*.node[*].appl.dataOnSch = true
*.rsu[*].appl.dataOnSch = true

