<routes>

      <vType id="Car-Compact" type="passenger" length="3.5" accel="0" decel="0" sigma="0" maxSpeed="0" />
    
      <flow id="flow1" type="Car-Compact" color="1,0,0"  begin="0" end= "1" number="15" departPos="random">
         <route edges="-gneE2" />
      </flow>
      
  <flow id="flow2" type="Car-Compact" color="1,0,0"  begin="0" end= "1" number="15" departPos="random">
         <route edges="gneE2" />
  </flow>
  
    <flow id="flow3" type="Car-Compact" color="1,0,0"  begin="0" end= "1" number="15" departPos="random">
         <route edges="-gneE3" />
  </flow>
  
      <flow id="flow4" type="Car-Compact" color="1,0,0"  begin="0" end= "1" number="15" departPos="random">
         <route edges="gneE3" />
  </flow>
  
      <flow id="flow5" type="Car-Compact" color="1,0,0"  begin="0" end= "1" number="15" departPos="random">
         <route edges="gneE0" />
  </flow>
  
        <flow id="flow6" type="Car-Compact" color="1,0,0"  begin="0" end= "1" number="15" departPos="random">
         <route edges="-gneE0" />
  </flow>
  
        <flow id="flow7" type="Car-Compact" color="1,0,0"  begin="0" end= "1" number="15" departPos="random">
         <route edges="gneE1" />
  </flow>
  
          <flow id="flow8" type="Car-Compact" color="1,0,0"  begin="0" end= "1" number="15" departPos="random">
         <route edges="-gneE1" />
  </flow>


</routes>
